Version 4
SHEET 1 880 680
WIRE 32 160 -32 160
WIRE 32 192 0 192
WIRE 208 192 96 192
WIRE 352 192 288 192
WIRE 400 192 352 192
WIRE 0 208 0 192
WIRE 0 208 -32 208
WIRE 352 240 352 192
WIRE 352 336 352 304
FLAG -32 160 A
IOPIN -32 160 In
FLAG -32 208 B
IOPIN -32 208 In
FLAG 400 192 Out2
IOPIN 400 192 Out
FLAG 352 336 0
SYMBOL res 304 176 R90
WINDOW 0 0 56 VBottom 2
WINDOW 3 32 56 VTop 2
SYMATTR InstName R1
SYMATTR Value 1000
SYMBOL cap 336 240 R0
SYMATTR InstName C1
SYMATTR Value 100nf
SYMBOL Digital\\and 64 112 R0
SYMATTR InstName A1
TEXT 40 64 Left 2 !VB B 0 PULSE(0 1 2ms 100ns 100ns 1ms 2ms 5)
TEXT 40 16 Left 2 !VA A 0 PULSE(0 1 0ms 100ns 100ns 1ms 2ms 5)
TEXT 48 -16 Left 2 !.tran 0 5m
